<?xml version="1.0" encoding="UTF-8"?>

<!-- generated on 2021-10-19 16:13:53 by Eclipse SUMO netedit Version 1.10.0
<configuration xmlns:xsi="http://www.w3.org/2001/XMLSchema-instance" xsi:noNamespaceSchemaLocation="http://sumo.dlr.de/xsd/netconvertConfiguration.xsd">

    <input>
        <sumo-net-file value="C:\Users\b2022\Documents\Sumo_shit\T\T.net.xml"/>
    </input>

    <output>
        <output-file value="C:\Users\b2022\Documents\Sumo_shit\T\T.net.xml"/>
    </output>

    <processing>
        <geometry.min-radius.fix.railways value="false"/>
        <geometry.max-grade.fix value="false"/>
        <offset.disable-normalization value="true"/>
        <lefthand value="false"/>
    </processing>

    <junctions>
        <no-internal-links value="false"/>
        <no-turnarounds value="true"/>
        <junctions.corner-detail value="5"/>
        <junctions.limit-turn-speed value="5.5"/>
        <rectangular-lane-cut value="false"/>
    </junctions>

    <pedestrian>
        <walkingareas value="false"/>
    </pedestrian>

    <netedit>
        <additional-files value="C:\Users\b2022\Documents\Sumo_shit\T\T.xml"/>
        <route-files value="C:\Users\b2022\Documents\Sumo_shit\T\T.rou.xml"/>
    </netedit>

    <report>
        <aggregate-warnings value="5"/>
    </report>

</configuration>
-->

<routes xmlns:xsi="http://www.w3.org/2001/XMLSchema-instance" xsi:noNamespaceSchemaLocation="http://sumo.dlr.de/xsd/routes_file.xsd">
    <flow id="flow_0" begin="0.00" from="gneE20" to="-gneE19" end="3600.00" number="1800"/>
    <flow id="flow_1" begin="0.00" departLane="1" from="gneE20" to="-gneE21" end="3600.00" number="1800"/>
    <flow id="flow_2" begin="0.00" from="gneE19" to="-gneE21" end="3600.00" number="1800"/>
    <flow id="flow_3" begin="0.00" from="gneE19" to="-gneE20" end="3600.00" number="1800"/>
    <flow id="flow_4" begin="0.00" departLane="1" from="gneE19" to="-gneE20" end="3600.00" number="1800"/>
    <flow id="flow_5" begin="0.00" from="gneE21" to="-gneE20" end="3600.00" number="1800"/>
    <flow id="flow_6" begin="0.00" departLane="1" from="gneE21" to="-gneE19" end="3600.00" number="1800"/>
    <flow id="flow_7" begin="0.00" departLane="1" from="gneE21" to="-gneE20" end="3600.00" number="1800"/>
    <flow id="flow_8" begin="0.00" departLane="1" from="gneE20" to="-gneE19" end="3600.00" number="1800"/>
    <personFlow id="personFlow_0" begin="0.00" end="3600.00" probability="0.01">
        <personTrip from="-gneE21" to="-gneE19"/>
    </personFlow>
    <personFlow id="personFlow_1" begin="0.00" end="3600.00" probability="0.01">
        <personTrip from="-gneE19" to="-gneE21"/>
    </personFlow>
    <personFlow id="personFlow_2" begin="0.00" end="3600.00" probability="0.01">
        <personTrip from="gneE21" to="gneE20"/>
    </personFlow>
    <personFlow id="personFlow_3" begin="0.00" end="3600.00" probability="0.01">
        <personTrip from="gneE20" to="gneE21"/>
    </personFlow>
    <personFlow id="personFlow_4" begin="0.00" end="3600.00" probability="0.01">
        <personTrip from="-gneE20" to="gneE19"/>
    </personFlow>
    <personFlow id="personFlow_5" begin="0.00" end="3600.00" probability="0.01">
        <personTrip from="gneE19" to="-gneE20"/>
    </personFlow>
    <personFlow id="personFlow_6" begin="0.00" end="3600.00" probability="0.01">
        <personTrip from="gneE20" to="-gneE19"/>
    </personFlow>
    <personFlow id="personFlow_7" begin="0.00" end="3600.00" probability="0.01">
        <personTrip from="-gneE19" to="gneE20"/>
    </personFlow>
</routes>
